LTspice 24.1.9 for Windows
Circuit: C:\Users\sdeep\OneDrive\Desktop\LTspice circuit simulation\Prj1.net
Start Time: Sat Jun 21 22:36:22 2025
solver = Normal
Maximum thread count: 4
tnom = 27
temp = 27
method = trap
.OP point found by inspection.
Total elapsed time: 0.110 seconds.

Files loaded:
C:\Users\sdeep\OneDrive\Desktop\LTspice circuit simulation\Prj1.net

