LTspice 24.1.4 for Windows
Circuit: C:\Users\sdeep\OneDrive\Desktop\Circuit Simulation\Basic 1st Circuit.net
Start Time: Mon Apr 28 20:59:09 2025
solver = Normal
Maximum thread count: 4
tnom = 27
temp = 27
method = trap
.OP point found by inspection.
Total elapsed time: 0.167 seconds.

Files loaded:
C:\Users\sdeep\OneDrive\Desktop\Circuit Simulation\Basic 1st Circuit.net
C:\Users\sdeep\AppData\Local\LTspice\lib\cmp\standard.dio

